38

S         19.98444       -0.00000        0.00000
C         15.43631        0.06567       -0.00717
C         16.15343       -1.13891       -0.01328
C         17.53449       -1.13323       -0.01119
C         18.23811        0.07376       -0.00289
C         17.52988        1.27530        0.00293
C         16.14674        1.27260        0.00076
C          8.59058        0.06250       -0.00333
C          9.30176       -1.14592       -0.00475
C         10.68197       -1.14633       -0.00658
C         11.39384        0.06168       -0.00692
C         10.68265        1.27012       -0.00560
C          9.30247        1.27053       -0.00384
C          1.74631        0.07438        0.00048
C          2.45038       -1.13237        0.00064
C          3.83145       -1.13748        0.00070
C          4.54811        0.06739        0.00061
C          3.83723        1.27407        0.00072
C          2.45408        1.27620        0.00064
H         15.61587       -2.08035       -0.01967
H         18.08060       -2.06982       -0.01567
H         18.06464        2.21928        0.00948
H         15.60508        2.21177        0.00537
H          8.75733       -2.08359       -0.00428
H         11.22585       -2.08432       -0.00762
H         11.22709        2.20779       -0.00593
H          8.75860        2.20853       -0.00271
H          1.90467       -2.06920        0.00060
H          4.36943       -2.07871        0.00072
H          4.37846        2.21349        0.00078
H          1.91892        2.21999        0.00062
C          5.96366        0.06495       -0.00004
C          7.17539        0.06340       -0.00160
C         12.80903        0.06189       -0.00800
C         14.02076        0.06298       -0.00818
S          0.00000        0.00000        0.00000
H         20.20537        1.30931        0.00868
H         -0.22139        1.30926       -0.00054
